<?xml version="1.0" ?>
<!DOCTYPE population
  SYSTEM 'http://www.matsim.org/files/dtd/population_v6.dtd'>
<population>
   <person id="207099">
      <attributes>
         <attribute name="subpopulation" class="java.lang.String">2212</attribute>
      </attributes>
      <plan selected="yes">
         <activity type="home" x="550559.6650336969" y="5279567.281590242" end_time="09:59:00"/>
         <leg mode="car" dep_time="09:59:00" trav_time="00:08:37"/>
         <activity type="work" x="549183.9292520431" y="5278554.9940526625" end_time="10:14:00"/>
         <leg mode="car" dep_time="10:14:00" trav_time="00:19:05"/>
         <activity type="work" x="548651.5393794837" y="5270459.254335398" end_time="12:17:00"/>
         <leg mode="car" dep_time="12:17:00" trav_time="00:08:56"/>
         <activity type="others" x="550336.0007331957" y="5269476.574510055" end_time="12:26:00"/>
         <leg mode="car" dep_time="12:26:00" trav_time="00:08:42"/>
         <activity type="work" x="548716.9717216006" y="5270571.4240647415" end_time="12:35:00"/>
         <leg mode="car" dep_time="12:35:00" trav_time="00:10:05"/>
         <activity type="others" x="549830.9266164636" y="5269841.787961774" end_time="12:57:00"/>
         <leg mode="car" dep_time="12:57:00" trav_time="00:09:54"/>
         <activity type="work" x="548616.763520354" y="5270399.63857689" end_time="17:22:00"/>
         <leg mode="walk" dep_time="13:05:00" trav_time="01:21:33"/>
         <activity type="others" x="549954.715376597" y="5272789.417483092" end_time="14:28:00"/>
         <leg mode="walk" dep_time="14:28:00" trav_time="01:21:33"/>
         <activity type="work" x="548690.080915643" y="5270525.325540243" end_time="17:22:00"/>
         <leg mode="car" dep_time="17:22:00" trav_time="00:17:46"/>
         <activity type="others" x="549941.6069609112" y="5273436.512655946" end_time="18:21:00"/>
         <leg mode="car" dep_time="18:21:00" trav_time="00:17:53"/>
         <activity type="work" x="548715.3518643252" y="5270568.647166555" end_time="18:39:00"/>
         <leg mode="car" dep_time="18:39:00" trav_time="00:21:13"/>
         <activity type="shop" x="551045.348410973" y="5279017.722992652" end_time="20:07:00"/>
         <leg mode="walk" dep_time="20:07:00" trav_time="00:02:52"/>
         <activity type="shop" x="551437.2127493055" y="5279055.585182442" end_time="20:25:00"/>
         <leg mode="car" dep_time="20:25:00" trav_time="00:04:57"/>
         <activity type="home" x="550579.4829722208" y="5279601.25519914" end_time="20:28:00"/>
         <leg mode="car" dep_time="20:28:00" trav_time="00:13:21"/>
         <activity type="shop" x="551156.5150467556" y="5287433.922373904" end_time="20:52:00"/>
         <leg mode="car" dep_time="20:52:00" trav_time="00:12:49"/>
         <activity type="home" x="550559.6650336969" y="5279567.281590242"/>
      </plan>
   </person>

   <person id="120815">
      <attributes>
         <attribute name="subpopulation" class="java.lang.String">4212</attribute>
      </attributes>
      <plan selected="yes">
         <activity type="home" x="549032.6810804417" y="5281577.479466641" end_time="07:15:00"/>
         <leg mode="car" dep_time="07:15:00" trav_time="00:04:44"/>
         <activity type="others" x="550073.017100684" y="5281407.724120041" end_time="08:51:00"/>
         <leg mode="car" dep_time="08:51:00" trav_time="00:04:42"/>
         <activity type="home" x="549059.0598855771" y="5281622.700275444" end_time="10:40:00"/>
         <leg mode="walk" dep_time="10:40:00" trav_time="00:39:53"/>
         <activity type="others" x="551071.0465773364" y="5280207.285478871" end_time="13:04:00"/>
         <leg mode="walk" dep_time="13:04:00" trav_time="00:34:36"/>
         <activity type="others" x="549345.0975198841" y="5281361.076730939" end_time="13:43:00"/>
         <leg mode="walk" dep_time="13:43:00" trav_time="00:05:39"/>
         <activity type="home" x="549003.4726128782" y="5281527.40780796" end_time="14:46:00"/>
         <leg mode="car" dep_time="14:46:00" trav_time="00:10:50"/>
         <activity type="others" x="547099.0311724641" y="5279492.737099774" end_time="16:25:00"/>
         <leg mode="car" dep_time="16:25:00" trav_time="00:10:59"/>
         <activity type="home" x="548981.4279287176" y="5281489.616920828" end_time="18:00:00"/>
         <leg mode="walk" dep_time="18:00:00" trav_time="00:24:53"/>
         <activity type="others" x="551015.9558307752" y="5281543.764603908" end_time="19:28:00"/>
         <leg mode="walk" dep_time="19:28:00" trav_time="00:24:53"/>
         <activity type="home" x="549023.6636681907" y="5281562.021045639" end_time="21:45:00"/>
         <leg mode="walk" dep_time="21:45:00" trav_time="00:26:49"/>
         <activity type="others" x="551039.0338645187" y="5281960.444228011" end_time="23:16:00"/>
         <leg mode="walk" dep_time="23:16:00" trav_time="00:26:49"/>
         <activity type="home" x="549032.6810804417" y="5281577.479466641"/>
      </plan>
   </person>

</population>